#

@<TRIPOS>MOLECULE
pdTp.pdb
 38 39 0 0 0
SMALL
USER_CHARGES

@<TRIPOS>ATOM
      1 P2         10.1930   17.8630   -4.1490 p5        1 LIG         0.4677
      2 O4P        11.5850   17.4130   -4.3900 o         1 LIG        -0.1254
      3 O5P         9.4660   16.7020   -3.6540 o         1 LIG        -0.1254
      4 O6P        10.2510   18.8560   -3.0620 o         1 LIG        -0.1254
      5 P1         12.4980   19.2830   -9.7540 p5        1 LIG         0.4680
      6 O1P        12.9820   19.1560  -11.1190 o         1 LIG        -0.1254
      7 O2P        13.3880   20.2080   -9.0590 o         1 LIG        -0.1254
      8 O3P        12.7720   17.9970   -9.1160 o         1 LIG        -0.1254
      9 O5'         9.4920   18.4520   -5.4790 os        1 LIG        -0.2908
     10 C5'        10.0340   19.5460   -6.1500 c3        1 LIG         0.0871
     11 C4'         9.9430   19.1330   -7.6280 c3        1 LIG         0.1159
     12 O4'         8.6040   18.8110   -7.9200 os        1 LIG        -0.3113
     13 C3'        10.3530   20.2420   -8.5120 c3        1 LIG         0.1062
     14 O3'        10.9020   19.6910   -9.7030 os        1 LIG        -0.2871
     15 C2'         9.0930   20.9820   -8.8710 c3        1 LIG         0.0667
     16 C1'         8.0960   19.7820   -8.8210 c3        1 LIG         0.2732
     17 N1          6.8570   20.3140   -8.3760 n         1 LIG        -0.1198
     18 C2          5.9060   20.7700   -9.3750 c         1 LIG         0.4841
     19 O2          6.1440   20.6350  -10.7170 o         1 LIG        -0.4436
     20 N3          4.6760   21.3360   -9.0140 n         1 LIG        -0.1146
     21 C4          4.4040   21.4720   -7.6440 c         1 LIG         0.2296
     22 O4          3.2180   22.0400   -7.3680 o         1 LIG        -0.4919
     23 C5          5.3620   21.0370   -6.5680 cc        1 LIG         0.0746
     24 C5M         4.9840   21.2110   -5.0870 c3        1 LIG        -0.0290
     25 C6          6.5850   20.4680   -6.9260 cd        1 LIG         0.1868
     26 H5'1       10.9600   19.6790   -5.8930 h1        1 LIG         0.0592
     27 H5'2        9.5120   20.3460   -5.9810 h1        1 LIG         0.0592
     28 H4'        10.5080   18.3610   -7.7880 h1        1 LIG         0.0648
     29 H3'        10.9880   20.8260   -8.0700 h1        1 LIG         0.0631
     30 H2'1        8.8740   21.6530   -8.2050 h1        1 LIG         0.0383
     31 H2'2        9.1460   21.3630   -9.7610 hc        1 LIG         0.0383
     32 H1'         7.9950   19.3960   -9.7050 h2        1 LIG         0.1417
     33 H6          7.1980   20.1890   -6.2850 h4        1 LIG         0.1383
     34 H2          6.9290   21.1341  -10.9543 ho        1 LIG         0.2999
     35 H4          2.6829   21.4302   -6.8547 ho        1 LIG         0.2937
     36 H5M1        3.9980   21.6700   -5.0146 h1        1 LIG         0.0281
     37 H5M2        5.7188   21.8501   -4.5974 h1        1 LIG         0.0281
     38 H5M3        4.9677   20.2364   -4.5992 h1        1 LIG         0.0281
@<TRIPOS>BOND
     1    1    2 1  
     2    1    3 1  
     3    1    4 1  
     4    1    9 1  
     5    5    6 1  
     6    5    7 1  
     7    5    8 1  
     8    5   14 1  
     9    9   10 1  
    10   10   11 1  
    11   10   26 1  
    12   10   27 1  
    13   11   12 1  
    14   11   13 1  
    15   11   28 1  
    16   12   16 1  
    17   13   14 1  
    18   13   15 1  
    19   13   29 1  
    20   15   16 1  
    21   15   30 1  
    22   15   31 1  
    23   16   17 1  
    24   16   32 1  
    25   17   18 2  
    26   17   25 1  
    27   18   19 1  
    28   18   20 1  
    29   20   21 2  
    30   21   22 1  
    31   21   23 1  
    32   23   24 1  
    33   23   25 2  
    34   25   33 1  
    35   34   19 1  
    36   35   22 1  
    37   36   24 1  
    38   37   24 1  
    39   38   24 1  
